75
-1908.675294407255
O -3.71933388 -0.52451917 2.58439179
H -4.54837545 -0.59220352 3.06696799
H -3.04027451 -0.24958110 3.25661128
O 0.63897133 -0.53898632 0.77758126
H 0.37286075 -1.31533424 1.32467159
H 1.56571624 -0.31988243 1.03443928
O 3.14491681 2.20385725 -0.37496354
H 2.32403689 2.66949602 -0.59753524
H 3.38574365 1.73230816 -1.19189502
O 1.88253481 -3.98245574 0.75880574
H 1.75230092 -3.96614097 -0.20468009
H 2.66380476 -3.42138456 0.90057464
O -3.12340028 1.01546729 0.34388466
H -3.48273098 0.58903178 1.14513405
H -2.24361395 1.36542019 0.61170679
O -1.76262305 3.98007983 -2.64727708
H -2.02838157 4.88408540 -2.83806659
H -2.57332007 3.52556643 -2.29425321
O 0.89218772 0.86656415 -3.05909619
H 1.86261131 0.77753412 -3.11669161
H 0.58282868 0.03545209 -2.63275269
O 0.30588482 -1.58029119 4.42417390
H 0.43929481 -2.20097014 5.14652658
H 0.15052632 -2.13082870 3.61897748
O -0.60361624 1.83517454 0.96481868
H -0.22945287 2.29186744 0.17377817
H -0.17162685 0.94779206 0.94747883
O -0.00876235 -1.31864367 -1.71004662
H 0.28559603 -1.04394297 -0.80879426
H -0.99293371 -1.26078761 -1.66133567
O 4.09377022 -2.13084791 0.92990856
H 3.82885291 -1.22580797 1.22365885
H 4.92264561 -2.32186729 1.37858528
O -1.85386137 0.22472243 4.31141803
H -1.13818250 -0.42208630 4.44843394
H -1.39526745 1.06388294 4.13020297
O -3.46309051 0.42788180 -3.71206030
H -3.98692580 0.18999860 -4.48230323
H -2.65096169 0.88116856 -4.06339009
O 0.45119898 2.91258953 -1.28304788
H -0.22799580 3.47005121 -1.70589274
H 0.58440276 2.17738378 -1.92291234
O 3.63671181 0.59419751 -2.68493792
H 3.75028238 -0.34932221 -2.39259053
H 4.35004817 0.75946780 -3.30832030
O -0.26890932 2.44224717 3.54096970
H -0.37724284 2.38343090 2.56022775
H -0.36785792 3.36993576 3.77263135
O 3.86066444 -1.91746769 -1.86928005
H 4.03960442 -2.02527918 -0.91760325
H 3.10776984 -2.50838440 -2.04621161
O 1.97983715 0.72451299 3.94143298
H 1.28531021 1.40388735 3.90125886
H 1.49961571 -0.09049063 4.16601820
O -2.68584670 -1.02764503 -1.43635110
H -3.04910988 -0.70578365 -2.28211260
H -2.83491588 -0.27906412 -0.81578495
O 1.50944598 -3.48864665 -2.03132018
H 0.83327439 -2.76811368 -2.00526623
H 1.23277195 -4.09949996 -2.72007090
O -1.31790501 1.81022959 -4.46475899
H -1.41362928 2.66119765 -4.00386416
H -0.46887349 1.45775223 -4.13891426
O -2.62515415 -2.64228554 1.00747840
H -3.08873912 -1.98284023 1.55333064
H -2.73427937 -2.32343940 0.09828639
O 3.09827004 0.26774747 1.52791563
H 2.80671822 0.55589674 2.42463993
H 3.16871415 1.05794763 0.94413913
O -3.86820011 2.56428336 -1.84636462
H -3.93075004 1.84682922 -2.49987926
H -3.75064608 2.10143815 -0.99593672
O -0.13387837 -2.76823689 2.07954646
H 0.50640444 -3.35054274 1.60720672
H -1.02282488 -2.86802117 1.66724653
