15
-381.704854202754
O -1.15949351 1.97419482 -0.23210675
H -0.18477780 1.93078822 -0.10644003
H -1.28752843 2.44364428 -1.06042782
O -2.23941407 -0.48537068 0.14770141
H -2.76533045 -0.41797159 0.94902996
H -1.89103368 0.42136658 -0.00685019
O 1.51777525 1.72476224 0.12424380
H 1.90175115 2.06863908 0.93515869
H 1.77379608 0.77553635 0.10212046
O -0.23090715 -2.30935335 0.06065008
H -0.98375463 -1.67765310 0.10311569
H -0.48675124 -2.95890884 -0.59909512
O 2.11620803 -0.92239355 0.07715662
H 2.69890981 -1.26385098 -0.60580661
H 1.30759237 -1.47913322 0.03524633
