51
-1297.842169038983
O  -0.2876776   0.20582814  0.31038383
H   0.64585039  0.20671641 -0.02296718
H  -0.7087696   1.01609712 -0.04453391
O  -0.30762186  0.20034176  2.97458143
H  -0.31978223  0.1822533   1.99174616
H  -0.7933894  -0.59814704  3.27057154
O   2.15657319  0.21298644 -0.53462218
H  2.75373589 0.20748929 0.25256868
H   2.37027257 -0.5968009  -1.03639374
O  -1.50740058 -1.92728291 -0.57502421
H  -2.27743252 -1.63835036 -1.10938093
H  -1.06873759 -1.10039376 -0.25480468
O  -1.54338253  2.38305131 -0.58521726
H  -1.79651592  2.86308818  0.21272614
H  -0.92934294  2.98560415 -1.0765961
O  -1.61301633 -2.06222541  3.88339391
H  -2.42123582 -1.86263379  4.36468036
H  -1.90673292 -2.58988025  3.1108707
O  2.22687882 0.20409749 3.89351641
H  1.28523719 0.18330544 3.59579032
H   2.31293321 -0.53429205  4.50281477
O  -1.64409714  2.48939783  3.90730509
H  -1.15884414  1.69603956  3.61340916
H  -1.04263601  2.921474    4.51901342
O  -3.66831168 -1.17756863 -2.1251831
H  -4.52108983 -1.4578307  -1.7804989
H  -3.73452469 -0.20208213 -2.18809031
O   0.21577981 -3.40089823 -2.07640034
H  -0.21881447 -3.56141185 -2.91880217
H  -0.43369213 -2.87307565 -1.55219564
O  -2.38637036 -3.43409433  1.55497525
H  -2.03487816 -4.31795485  1.41730234
H  -2.07341149 -2.91486758  0.78135019
O   2.61296574 -2.0643883  -2.08906037
H   3.28357907 -2.68638004 -1.79178397
H   1.76915243 -2.5775909  -2.11704578
O   2.60616888  2.51582866 -2.09131925
H   2.48653314  1.78142266 -1.46018711
H   2.81028647  2.02450052 -2.90162727
O  3.72934094 0.23255167 1.64820652
H  4.33264665 0.97589177 1.73425998
H  3.22442797 0.20973255 2.49509321
O   0.15473608  3.85441934 -2.06444621
H   1.03332088  3.40683699 -2.12358973
H   0.35941512  4.77895389 -1.89969443
O  -3.73705223  1.61748063 -2.16443263
H  -2.97892949  1.9402683  -1.64086314
H  -3.67914902  2.08640332 -3.0016275
O   3.01069389  0.20780373 -3.86120903
H   3.2440199  -0.05838494 -4.75411949
H   2.91734875 -0.62350002 -3.3682922
