24
-610.699899359085
O   0.02277885 -0.00642763 -1.36056841
H  -0.35350277  0.81470964 -1.71809042
H   0.94041503 -0.02947048 -1.68218566
O  0.03595643 0.03255532 1.39201696
H  0.01870483 0.00391823 0.41419927
H  -0.43363577 -0.76623765  1.68057286
O   2.663003   -0.05776818 -2.30923264
H   3.35691317  0.59089219 -2.16129158
H   3.06006981 -0.74071521 -2.85701841
O  -1.36962325 -2.34584098 -2.28008022
H  -2.10685088 -2.02443086 -2.80480773
H  -0.92024782 -1.53860689 -1.9775137
O  -1.28291767  2.31025356 -2.33233582
H  -2.20040577  2.45386539 -2.08176456
H  -1.05242828  3.0590831  -2.88888718
O  -1.26123074  2.3769768   2.310626
H  -1.22530895  2.33442905  3.2692117
H  -0.81289113  1.56242053  2.01759024
O  2.71148056 0.00580992 2.32264346
H  2.79059137 0.81862817 2.82818407
H  1.79236635 0.0200714  1.99876032
O  -1.3313117  -2.24984041  2.37512133
H  -0.95436794 -2.93229834  2.93740311
H  -2.24454279 -2.51205777  2.22985758
