48
-1221.533246247879
O -2.68474751 -0.81563632 0.43333846
H -2.76667554 0.03876059 -0.01647625
H -1.86296204 -0.72286016 0.95464290
O -1.35794061 1.99600830 2.41739416
H -2.02727418 2.06651058 3.10419189
H -0.99971053 1.08158183 2.47738162
O -0.33964558 -0.43661030 1.95454448
H -0.08285879 -1.30781050 2.31595673
H 0.43906747 -0.14824679 1.42432141
O -2.41804213 -3.00668424 -1.03577142
H -3.27187446 -3.38391606 -1.26486891
H -2.60833604 -2.18751203 -0.50982325
O 0.05453979 0.57525065 -1.75234906
H -0.75780041 0.87258061 -1.30148567
H -0.12510573 -0.32424807 -2.12157430
O -0.36926553 -4.33741479 0.34983978
H 0.33711505 -4.26402543 -0.31646309
H -1.15445212 -3.96364018 -0.09115827
O 1.70382181 -3.57076751 -1.40169199
H 2.17117175 -3.06262202 -0.68724928
H 2.38283071 -4.06778726 -1.86646226
O -2.05230208 1.83498821 -0.33519752
H -1.87088616 1.97146111 0.61237502
H -1.92830034 2.71762554 -0.72928859
O 1.11277853 3.11242824 -2.18843731
H 1.76386555 3.11654897 -1.46719046
H 0.83572536 2.17922930 -2.25586173
O -1.01869370 4.29923742 -1.15162899
H -0.22738148 3.93191467 -1.63120855
H -1.32620412 5.04813324 -1.67014231
O -0.29336203 -1.95040442 -2.62129104
H 0.44447520 -2.50081097 -2.30472882
H -1.08243549 -2.36153960 -2.23024518
O 0.57200110 -2.99863961 2.43126692
H 0.15904995 -3.54137707 1.70555006
H 0.58400542 -3.56223902 3.20989849
O 2.48035249 3.03206711 0.34694956
H 1.72165399 3.47394220 0.80839988
H 3.27860432 3.46380530 0.66412866
O 1.71028062 0.35264578 0.35644179
H 1.17526756 0.41763840 -0.47148015
H 2.12082966 1.23217419 0.45640000
O 0.26856299 4.10325851 1.37804906
H -0.25755534 4.33103576 0.59133087
H -0.26167497 3.43895362 1.84925283
O 2.71154301 -2.21738332 0.65173094
H 2.15485392 -2.49640165 1.39723065
H 2.50803025 -1.26850863 0.54147918
