30
-763.443269584044
O -1.34025365 3.67988836 -0.02575771
H -1.54185084 2.72501439 0.01605927
H -1.95921611 4.09964814 0.57706404
O 1.45474924 -2.98713636 -0.05486034
H 0.47200566 -3.10924798 -0.02792077
H 1.83770267 -3.86858005 -0.07182351
O -1.22361443 -2.94195989 0.02126678
H -1.41224431 -2.38596783 0.79676596
H -1.45768173 -2.37909442 -0.73661057
O -1.37724787 -0.94893781 -2.00519346
H -0.38592010 -0.91869241 -2.10392578
H -1.74087323 -0.94144498 -2.89518465
O 1.41933540 3.89311725 0.01939993
H 1.72102177 4.42079367 -0.72492774
H 0.44388788 3.96624685 0.00733405
O -1.49598921 0.92017626 0.05032109
H -1.58026207 0.33331327 0.82654614
H -1.63170833 0.34113668 -0.72446687
O -1.25890276 -0.97091811 2.07652965
H -1.57271134 -0.98557320 2.98527475
H -0.26283775 -0.94684977 2.12256451
O 1.37768954 -0.90682098 1.88909829
H 1.60218486 -1.66646557 1.32495008
H 1.54922956 -0.12750976 1.32603208
O 1.30798542 1.13000586 -0.01329821
H 0.33091154 1.13945026 0.01004970
H 1.55001589 2.07831093 -0.01364695
O 1.26873126 -0.87319935 -1.95258830
H 1.52439755 -1.64440474 -1.41803879
H 1.46740446 -0.10642459 -1.38110907
