30
-763.440721881618
O 0.00000000 -2.00255520 1.35704573
H 0.00000000 -2.92899867 1.61325147
H 0.00000000 -1.99249068 0.36468074
O 0.00000000 -1.79948835 -1.30325176
H -0.76784798 -1.28394092 -1.60575210
H 0.76784798 -1.28394092 -1.60575210
O -1.89013044 0.00000000 2.02769505
H -1.30362848 -0.76715151 1.90385448
H -1.30362848 0.76715151 1.90385448
O 0.00000000 1.79948835 -1.30325176
H -0.76784798 1.28394092 -1.60575210
H 0.76784798 1.28394092 -1.60575210
O -2.07011214 0.00000000 -2.06914235
H -2.52071063 0.00000000 -2.91792133
H -2.77913956 0.00000000 -1.38358639
O 2.07011214 0.00000000 -2.06914235
H 2.77913956 0.00000000 -1.38358639
H 2.52071063 0.00000000 -2.91792133
O 1.89013044 0.00000000 2.02769505
H 1.30362848 -0.76715151 1.90385448
H 1.30362848 0.76715151 1.90385448
O -3.66605725 0.00000000 0.05130583
H -4.56979150 0.00000000 0.37193265
H -3.07434336 0.00000000 0.84532360
O 0.00000000 2.00255520 1.35704573
H 0.00000000 1.99249068 0.36468074
H 0.00000000 2.92899867 1.61325147
O 3.66605725 0.00000000 0.05130583
H 4.56979150 0.00000000 0.37193265
H 3.07434336 0.00000000 0.84532360
