30
-763.441836777904
O -2.30665943 -0.62713201 -2.10854306
H -2.21892732 -0.80249615 -3.04856211
H -1.73050278 -1.29418794 -1.65615635
O -0.76265204 -2.34634102 -0.76719099
H -0.93704875 -2.22413942 0.18311775
H 0.19352955 -2.19480397 -0.86234387
O -1.09791578 -1.66207483 1.95207425
H -1.39734587 -0.71485456 1.93714732
H -1.64082776 -2.10601054 2.60929188
O 0.76265204 2.34634102 -0.76719099
H 0.93704875 2.22413942 0.18311775
H -0.19352955 2.19480397 -0.86234387
O 1.09791578 1.66207483 1.95207425
H 1.39734587 0.71485456 1.93714732
H 1.64082776 2.10601054 2.60929188
O 2.30665943 0.62713201 -2.10854306
H 1.73050278 1.29418794 -1.65615635
H 2.21892732 0.80249615 -3.04856211
O 2.00489150 -1.70649651 -0.86372404
H 2.15570884 -0.88427616 -1.39378615
H 2.71716349 -2.30773260 -1.09911874
O 1.63476223 -0.93772586 1.83336372
H 0.76420189 -1.33964852 1.99994261
H 1.86458245 -1.22636787 0.93155112
O -2.00489150 1.70649651 -0.86372404
H -2.71716349 2.30773260 -1.09911874
H -2.15570884 0.88427616 -1.39378615
O -1.63476223 0.93772586 1.83336372
H -0.76420189 1.33964852 1.99994261
H -1.86458245 1.22636787 0.93155112
