51
-1297.881239652390
O 2.03161643 0.74203526 -1.19068007
H 1.84799100 1.57825273 -1.65957748
H 1.29806383 0.13513104 -1.41687894
O 3.53578093 -1.45404187 -0.14274792
H 3.06683872 -2.15143962 -0.64673842
H 3.32441893 -0.63753224 -0.62229685
O -2.10434378 0.68444397 -0.90715264
H -2.85205894 0.07690153 -0.76197090
H -1.84120737 0.97836337 -0.00379334
O 0.08938291 -2.08409721 1.26109969
H 0.86849471 -1.79772949 1.77614497
H -0.71626225 -1.72912909 1.71373681
O -1.26590918 4.27075902 0.92682691
H -0.27431265 4.31486149 0.90375538
H -1.56314154 5.07757751 1.35686522
O -2.18433506 -1.03205912 2.23434519
H -2.84359321 -1.21240059 1.54283692
H -2.02795557 -0.07355677 2.18120338
O -3.70506804 -1.50704286 -0.15197740
H -3.18125050 -2.21383822 -0.60781165
H -4.62957660 -1.73944309 -0.27825634
O 1.94638607 -3.21785248 -1.60516666
H 1.38886954 -3.82729835 -1.09372343
H 1.31183289 -2.58350035 -1.96355558
O 1.37934308 4.06966453 0.70922250
H 1.52330907 3.91445156 -0.24034585
H 1.60196718 3.21858916 1.12476911
O -1.39052501 3.28838031 -1.75485406
H -1.53401302 3.72193834 -0.89618402
H -1.78573999 2.40567571 -1.64847500
O 1.46569434 1.32785005 1.41263907
H 1.69384159 1.09431150 0.48289469
H 1.88633597 0.62386758 1.93707837
O -2.04775890 -3.17253195 -1.43830367
H -1.55002713 -3.83993297 -0.93633393
H -1.36073971 -2.52289026 -1.66471676
O -0.06142110 -1.07784620 -1.32746295
H -0.79203434 -0.41853738 -1.27135296
H 0.04548129 -1.37946498 -0.39718234
O 2.49868053 -1.14356901 2.25578834
H 3.08168070 -1.45243902 2.95499624
H 2.97799436 -1.30720224 1.39516149
O -0.02787742 -4.48327055 0.09168040
H 0.02293585 -5.26689821 0.64620380
H 0.02475445 -3.70763244 0.69778367
O -1.25882578 1.53531206 1.53474904
H -1.40712196 2.49840269 1.53369535
H -0.27964894 1.43535596 1.55089781
O 1.25717975 3.27553579 -2.04509147
H 0.26393372 3.28190399 -2.03015220
H 1.51375529 3.74958186 -2.84141732
