51
-1297.878085131044
O 3.37681391 1.08109721 1.05922007
H 2.71203122 1.78065197 0.95100743
H 3.37029618 0.59995571 0.21528049
O 2.62854556 -0.46075365 3.15669716
H 3.38576068 -0.87272954 3.58024671
H 2.99424082 0.10344633 2.43658262
O -1.62281372 -3.11207583 0.90929607
H -1.27702211 -3.28450725 0.01534905
H -0.86810854 -2.73107731 1.39105434
O 3.23252489 -0.46773188 -1.39109084
H 4.02754158 -0.55375200 -1.92588118
H 2.54431505 -0.09718977 -1.98881673
O 1.11000083 2.77804754 0.59604360
H 0.93614226 3.15035854 -0.28699902
H 0.33230819 3.00843145 1.13949194
O 1.07785491 0.49640567 -2.67751982
H 0.31534115 -0.05004425 -2.99613692
H 0.78645490 1.42677656 -2.68290065
O 1.92423519 -2.76499398 -0.32217768
H 1.58522092 -2.46981143 0.53926768
H 2.44413062 -2.01354130 -0.65899409
O 0.47360884 -1.51319643 1.90020358
H 0.44759165 -0.85150715 1.17318702
H 1.23698002 -1.24635916 2.46005817
O -1.04679996 -1.07919404 -3.11192575
H -0.83331634 -1.93828627 -2.70592006
H -1.71455020 -0.69960023 -2.51233633
O -3.53505604 -1.29448401 1.10758388
H -4.38196262 -1.66893154 1.36551503
H -2.90493562 -2.05822493 1.02190162
O -2.44422370 0.19647254 -0.99160461
H -3.02971944 -0.28763445 -0.38206258
H -1.57614440 0.19821787 -0.53740014
O 0.22794226 3.13493946 -2.06658626
H 0.25033446 3.88430548 -2.66959160
H -0.70409288 3.10181605 -1.71457520
O -0.31837641 -3.39418933 -1.62212837
H -0.24195199 -4.27018391 -2.01244403
H 0.56935897 -3.20084418 -1.22543628
O -2.15192630 2.95459138 -0.91188364
H -2.01675084 3.03294127 0.04813835
H -2.46342762 2.03432198 -1.01951260
O -1.75937574 0.30758602 2.63087204
H -1.00682958 -0.30600903 2.60464905
H -2.48224971 -0.18710986 2.20469538
O 0.16660171 0.28639553 -0.07846712
H 0.55422811 0.21972718 -0.97606852
H 0.49316492 1.15877961 0.23429184
O -1.36456078 2.83899876 1.85623152
H -1.51486131 1.90463358 2.15526891
H -1.67414166 3.38804436 2.58288209
