54
-1374.230689746553
O 2.39033810 -0.49577337 -2.74609443
H 2.75155845 -0.80433549 -3.58217463
H 1.48657570 -0.88215934 -2.68091679
O -0.57418384 0.61229051 3.43191263
H -0.28406743 -0.28899103 3.21103593
H -1.29545128 0.78955911 2.80582401
O -0.78503617 3.65795952 1.09624186
H -0.42846718 3.70554194 0.19215100
H -0.02478116 3.47628983 1.67362170
O -0.03286634 -1.46794245 -2.14966658
H -0.06802674 -2.36991404 -1.74520427
H -0.93297292 -1.25762936 -2.46704117
O -0.09533538 3.48235868 -1.68714851
H -0.02227583 4.30308769 -2.18354715
H 0.76944190 3.01098446 -1.82650209
O 2.23479912 2.23488393 -1.87699310
H 2.30004962 1.37232925 -2.31988407
H 2.44031012 2.03145491 -0.94381870
O -2.60014781 -0.56975910 -2.58653173
H -3.19844449 -0.65824762 -3.33422773
H -2.51738321 0.40862754 -2.41357679
O -2.10847719 1.29371382 0.99874135
H -1.77492604 2.21489375 1.12113428
H -1.31195839 0.82549703 0.65975538
O 0.08900562 -0.09213091 0.22277035
H 0.05132719 -0.55689440 -0.64251123
H 0.10606715 -0.79869829 0.90618200
O 3.47556871 -1.15102271 -0.17262020
H 3.21852373 -0.98379926 -1.09614966
H 3.30358847 -0.30342395 0.27710813
O -2.07675856 -3.19683073 1.13692627
H -2.59992214 -2.43537876 0.77084003
H -2.72345416 -3.79851802 1.51705765
O -3.38242881 -1.12231966 0.11402380
H -3.19323554 -0.25747156 0.51240280
H -3.21070267 -0.99957726 -0.83650534
O -2.41848708 1.92839441 -1.80392403
H -2.51319950 1.81852636 -0.84183290
H -1.61176485 2.47165540 -1.89387823
O 1.18245250 2.58113519 2.90412234
H 0.58053530 1.85080499 3.19311874
H 1.47909774 3.01064490 3.71160898
O 2.39141128 1.27319984 0.72474226
H 1.53052339 0.82797516 0.56388828
H 2.23382629 1.79007454 1.53415682
O 0.09505535 -1.90744078 2.26902315
H -0.67447464 -2.46695840 2.04820066
H 0.88185488 -2.43013523 2.02184358
O -0.01558574 -3.76174058 -0.75590570
H 0.77768516 -3.70135107 -0.19469021
H -0.76103151 -3.72209546 -0.13238445
O 2.19067132 -3.17045195 0.95729701
H 2.85376818 -3.79527657 1.26515061
H 2.70137076 -2.42670947 0.53387068
