57
-1450.580597732223
O -2.76767567 1.91396616 1.98086485
H -3.59150440 2.09340074 2.44394811
H -2.93073731 1.10551660 1.44380761
O -0.96570491 -4.11816221 -0.38524821
H -1.42928336 -3.70350780 0.39098609
H -1.27223618 -5.02919266 -0.41807131
O -2.09158805 -2.84195746 1.65407516
H -1.32611420 -2.45359611 2.11855274
H -2.53632840 -2.06144258 1.28120998
O 0.82081299 4.24454871 -0.00264928
H -0.16812819 4.13886427 0.02077537
H 0.99871767 5.17911052 0.13609652
O 1.29612807 -1.31797884 -1.81668009
H 2.07099679 -0.78621043 -2.07483015
H 1.62682234 -2.12591393 -1.34866618
O 1.41455588 2.63159584 -2.27427827
H 1.30901908 3.28270966 -1.55845520
H 0.50687852 2.34347556 -2.46651366
O 3.20823418 0.66503564 -2.04518115
H 2.58492418 1.42955956 -2.14381748
H 3.91807660 0.82620663 -2.67356728
O -1.25650279 1.67527067 -1.99025533
H -1.95843999 1.11379873 -2.36332699
H -0.84384241 1.09565384 -1.31958337
O -3.10755031 -0.43513577 -2.33456180
H -3.83161170 -0.61284411 -2.94141268
H -2.45324435 -1.17504467 -2.46230465
O 0.15043068 -1.33991659 2.42906609
H 0.12915108 -0.91884522 1.54855149
H 1.05602840 -1.70034485 2.47495106
O -1.23793820 -2.28604515 -2.52463852
H -1.21014911 -2.98794182 -1.84829386
H -0.33755137 -1.91590359 -2.51389033
O -0.03729118 0.09759151 -0.01395129
H 0.52677229 0.80465490 0.38981200
H 0.52589924 -0.41491400 -0.65458274
O 2.78078500 -2.14690991 1.90415529
H 3.10284937 -1.30854097 1.47975494
H 3.49702863 -2.44102641 2.47447088
O -0.30038865 1.33482582 3.37380009
H -1.19165106 1.52297397 3.03523993
H -0.20697955 0.36878570 3.30329176
O -1.75688605 3.65803297 -0.08109186
H -1.75688284 3.01652670 -0.81739803
H -2.13315541 3.16662347 0.66887850
O 3.46601418 0.16407907 0.77733243
H 3.51895704 0.30107604 -0.18365648
H 2.85642150 0.86290847 1.08077261
O 1.81802462 -3.50671383 -0.38887765
H 2.13807759 -3.20776044 0.47971240
H 0.91043671 -3.82999114 -0.25155895
O -2.73179993 -0.31987892 0.43371025
H -1.77274207 -0.21511148 0.26681768
H -3.10913946 -0.35236523 -0.46641072
O 1.39232526 1.91373761 1.35976016
H 0.83481298 1.84622235 2.17250777
H 1.30334282 2.82677508 1.02736039
