60
-1526.926812889965
O -0.22128431 1.66253965 -3.43290804
H -0.36830248 1.85569513 -4.36354882
H 0.68130347 1.23142914 -3.38388426
O -2.65951344 2.87759507 -0.31848171
H -3.47297684 3.38985596 -0.30496776
H -2.44749599 2.66302607 0.63961918
O -1.91430688 -3.76593593 -0.39590499
H -2.35458358 -4.61532108 -0.29779989
H -1.10423790 -3.80856560 0.18689945
O -1.27093684 -2.59292396 -2.84154627
H -1.78700953 -1.77849514 -2.82667242
H -1.56731650 -3.08513796 -2.05208175
O -0.21096705 -1.25019557 2.36796022
H 0.46522303 -0.80631686 2.91736098
H -1.09350224 -0.98878667 2.69118944
O 3.49763982 -0.75716667 1.29218781
H 3.26863797 -1.58946567 0.84409325
H 3.35419433 -0.05758489 0.62613118
O -1.98903822 0.55717406 -1.60958650
H -1.45545866 0.87498816 -2.36685859
H -2.36635006 1.37621275 -1.22268002
O 2.64096984 -3.15654520 -0.08080771
H 3.31677016 -3.77705527 -0.36979549
H 2.20768265 -2.81853723 -0.90158835
O -0.26514117 3.76714041 -1.49828154
H -0.19792012 3.12750525 -2.22872848
H -1.12642564 3.57267629 -1.08549574
O 0.21678275 -0.17858665 -0.11573497
H 0.00156055 -0.52477268 0.77820652
H -0.62187765 0.12908149 -0.51805799
O 1.98292020 0.07011958 3.29579502
H 2.59617920 -0.28005071 2.59338993
H 2.47773594 0.03468791 4.11957733
O 0.62548133 2.50725401 2.59727926
H 1.17511126 1.73621300 2.81367904
H 1.06232344 2.94877924 1.84946237
O 0.16968755 -3.74172754 1.20980205
H 1.05462054 -3.66947065 0.81205469
H 0.07077577 -2.92568257 1.73679043
O -3.23822662 -1.35704259 0.12054761
H -2.90069974 -0.77153754 -0.57584240
H -2.82081067 -2.22396993 -0.04378440
O 1.24271988 -1.88502013 -1.97094468
H 0.85999237 -1.30721448 -1.27125794
H 0.43870118 -2.24643935 -2.40202616
O -2.04191730 2.24955906 2.12189137
H -1.08379775 2.31302913 2.33650536
H -2.31975586 1.35323122 2.37333617
O -2.82849487 -0.43958922 2.58191340
H -3.56391564 -0.67335359 3.15534368
H -3.05520674 -0.79044680 1.68122557
O 2.12470414 0.51380400 -3.14774284
H 2.45871130 0.86554928 -2.29981888
H 1.92590729 -0.41624072 -2.92968232
O 1.72172883 3.74970155 0.26904656
H 0.99182586 3.81242640 -0.40095531
H 2.12472458 4.62165896 0.30441561
O 2.54775542 1.20243578 -0.46069389
H 2.48150472 2.14290353 -0.21073361
H 1.65383647 0.84423044 -0.27488416
