63
-1603.276671807875
O -1.96233728 2.26798002 2.87419837
H -2.62260362 1.81234771 2.27977315
H -2.47458565 2.81475685 3.47652960
O 2.77270970 0.92633982 2.95787515
H 2.82377830 0.12696053 2.39824611
H 1.90795940 0.82004948 3.38765345
O 0.00115509 0.27941474 3.29242057
H -0.70416845 0.94844945 3.37294187
H 0.09290301 0.17937779 2.33286278
O -3.45510111 1.63463996 -1.52411524
H -4.20187750 2.10678144 -1.90469315
H -2.67108547 2.23363398 -1.65282689
O 2.37468049 -1.12892713 1.12105456
H 2.13995321 -2.04596955 1.36080784
H 1.54648520 -0.75951849 0.75640308
O 0.96681577 2.34577472 -3.14611278
H 1.30750599 2.73472273 -3.95627145
H 1.74200314 2.29086831 -2.51523299
O -0.86782276 -2.47217569 3.11829421
H -0.52598552 -1.62913413 3.45871973
H -0.09588730 -2.92769395 2.73821320
O -3.51366341 0.94910985 1.21812944
H -3.17637075 0.03273585 1.18884834
H -3.56665242 1.21767762 0.28229842
O -2.14357414 -1.43497810 0.99596594
H -1.77185160 -1.91473273 1.77725013
H -2.36137585 -2.10643237 0.32167663
O -0.00981942 0.02252147 0.21530386
H -0.84159180 -0.46796113 0.43361653
H -0.17653723 0.98139096 0.36403795
O 1.23537398 -3.62722366 1.59840154
H 1.65899146 -4.46576384 1.80347853
H 0.85926430 -3.73039583 0.68523887
O -2.44227533 -2.98576792 -1.26140833
H -3.11228226 -3.62647701 -1.51538158
H -2.57686436 -2.19323323 -1.85086670
O 2.90837547 2.01014397 -1.44481830
H 3.22984762 1.08140816 -1.40813123
H 2.82848656 2.30753136 -0.52327478
O -2.58877118 -0.79766186 -2.71974566
H -1.64705778 -0.55300818 -2.80736415
H -2.99951874 -0.00218352 -2.33455452
O -0.21200927 2.69340113 0.79574024
H -0.75829794 2.77748401 1.60062083
H 0.70737092 2.92955944 1.03749923
O 3.68965309 -0.62089326 -1.30765521
H 3.21769592 -1.22296006 -1.90368450
H 3.39015508 -0.90217713 -0.42413056
O 0.11937396 -0.19689906 -2.55691459
H 0.12712263 -0.08955269 -1.58063933
H 0.41001963 0.67199364 -2.90357436
O 2.47809984 2.91816299 1.24652916
H 2.65852972 2.20324256 1.91872827
H 3.01810157 3.67000171 1.50841047
O 0.26975276 -3.74412562 -0.86526419
H 0.80726753 -3.30944194 -1.55113962
H -0.65622994 -3.52168791 -1.06609378
O 1.79026085 -2.28285803 -2.77163168
H 1.88071750 -2.63438961 -3.66252592
H 1.18269241 -1.50851666 -2.84227444
O -1.32019672 3.18830352 -1.70002704
H -0.92005694 3.17077700 -0.81094160
H -0.57753097 2.98948740 -2.29686026
