66
-1679.623476275787
O 2.29133856 -0.80957036 -3.28745097
H 1.87390929 -1.67565536 -3.02619580
H 2.61159454 -0.93713103 -4.18426459
O 0.47710273 0.99377800 -2.17909677
H 1.07471654 0.48773888 -2.76484863
H 0.29294195 0.36335790 -1.43848098
O 1.33700523 1.79485706 2.22960160
H 1.74657849 1.87810101 1.34103567
H 1.85526772 1.11799391 2.70255392
O -1.14578575 0.77630513 1.79887792
H -1.56155330 1.51438970 1.28949076
H -0.27226514 1.15104966 2.05582110
O 2.49250371 -1.52064861 0.73998050
H 2.45383474 -2.46814876 0.49868412
H 3.06824828 -1.06179972 0.07823516
O -2.19378554 2.81045843 0.35923071
H -3.01950133 2.43126366 0.00993943
H -1.68719635 3.07390459 -0.44680894
O -1.47907051 -2.29681801 -1.72809138
H -2.10363917 -2.84011926 -1.21634994
H -0.97394073 -1.81409183 -1.03695437
O 3.83715948 -0.03698277 -1.02748462
H 3.54538519 0.86845489 -0.82803640
H 3.44536845 -0.23731258 -1.89655835
O -0.16813295 4.20792283 1.90074319
H -1.02082084 3.85004444 1.60479781
H 0.30182488 3.44879840 2.28406116
O 1.69849622 -4.04627002 0.08247979
H 2.06941678 -4.91155376 0.27263028
H 0.87038242 -3.97855282 0.63496519
O -4.07150756 1.09062154 -0.84267411
H -4.91917814 1.27665951 -1.25449191
H -3.47365490 0.78454799 -1.57479455
O -3.55151576 -0.79819914 1.17113879
H -2.81844528 -0.34623775 1.61195169
H -3.84197428 -0.16814079 0.48377059
O 1.09728818 -3.04302149 -2.51956968
H 0.13428283 -2.93151870 -2.40552308
H 1.37398689 -3.48940594 -1.69977172
O 1.29726847 4.85580636 -0.23706507
H 1.64053642 5.75206598 -0.21334057
H 0.76807455 4.73308469 0.59195577
O -0.42944908 -3.72121013 1.57829819
H -0.37738382 -2.99517251 2.23426864
H -1.32364998 -3.65778956 1.20099088
O 2.26393308 2.24595434 -0.35932385
H 2.15622539 3.21569161 -0.38438656
H 1.62422701 1.91063665 -1.01766050
O 2.42390503 -0.57641741 3.22387754
H 2.59022688 -0.99926683 2.34639690
H 3.18780139 -0.77678647 3.77067657
O -0.24879973 -1.58843445 3.35451059
H 0.65988205 -1.26709815 3.48793295
H -0.73618688 -0.80611438 3.06294457
O -0.69186702 3.53382209 -1.77926328
H 0.00996954 4.11783216 -1.44580434
H -0.23045519 2.73892362 -2.09383513
O -2.99008488 -3.29770990 0.40447431
H -3.72177615 -3.88147993 0.61957148
H -3.26336207 -2.39566907 0.70777491
O 0.03014495 -0.69853447 -0.15679906
H 0.87483233 -1.03263071 0.21934871
H -0.43372960 -0.23052160 0.57446584
O -2.37417114 0.17143499 -2.67368006
H -2.14611586 -0.75684649 -2.46102908
H -1.51188153 0.60838102 -2.74137170
