72
-1832.323596137940
O -1.29396493 -0.91247764 3.65623558
H -1.56186025 -1.08511539 4.56256206
H -0.45002225 -1.42867538 3.52233985
O -2.91324486 -1.56849718 -2.78820036
H -3.66161218 -1.69853772 -3.37594407
H -3.25529969 -1.03650906 -2.01752679
O -2.17565635 2.09167774 0.07982796
H -1.74249550 1.86010504 0.93104853
H -2.43973651 3.02546516 0.17517602
O 3.73633461 0.32988513 -1.83248606
H 3.26552693 1.12572861 -1.50097865
H 4.53665453 0.66055482 -2.24960221
O 0.51712364 -4.35972945 1.32771076
H -0.41965356 -4.55004758 1.14967000
H 0.89751648 -4.19059899 0.45266446
O -0.33950894 5.05154002 -1.57414641
H 0.45915301 5.09629678 -1.02070989
H -0.30161150 4.15794712 -1.96066976
O 2.16163554 2.31584959 -0.78285384
H 1.28377283 2.29501986 -1.23745982
H 2.20729293 3.20957145 -0.39105252
O -3.65605562 -0.21734616 -0.64123018
H -3.35203067 -0.75612192 0.11286459
H -3.25243686 0.65402311 -0.47298789
O -2.23851176 -4.44996280 0.59195412
H -2.86569823 -5.17628310 0.62357058
H -2.03708938 -4.29352090 -0.36933600
O -2.35321193 -1.77852482 1.25935792
H -2.42488301 -2.75074918 1.18481157
H -2.16157233 -1.57372382 2.19486891
O -0.15799137 -0.98763571 -0.18976897
H 0.42125493 -0.43276530 0.37555567
H -0.92363515 -1.25771283 0.36443103
O 1.25475116 -3.07472355 -1.18724060
H 1.58729641 -2.67392462 -2.02369671
H 0.77099046 -2.33001706 -0.76321810
O -0.29288272 4.32299955 2.15739632
H -1.08676925 4.59388141 1.66420530
H -0.47784762 3.40791574 2.43621265
O 1.49732835 0.64502529 1.24380780
H 1.87030943 1.26874488 0.58317218
H 2.23932470 0.20103159 1.69902964
O -0.29429779 2.26863006 -1.90391470
H -0.39528353 1.46670226 -2.45750350
H -0.97080770 2.15238323 -1.19766809
O 3.70977890 -1.97034419 -0.10483502
H 2.96516597 -2.49614705 -0.44800622
H 3.77432993 -1.21031884 -0.70936603
O -0.45733960 -0.29606481 -2.83264773
H -0.40607294 -0.53537369 -1.88072104
H -1.31116871 -0.67705559 -3.10852445
O 2.02178079 -1.52277142 -3.30252794
H 1.17155812 -1.04970893 -3.37126217
H 2.63569610 -0.85124109 -2.96491185
O 1.69561395 4.77136345 0.43745065
H 2.27558672 5.45248080 0.78717439
H 1.01977117 4.59807045 1.14566102
O -2.29364244 4.87869826 0.22954124
H -1.63698415 5.04143288 -0.49725159
H -2.98407855 5.53847732 0.13078188
O 3.28325663 -1.10162389 2.34414477
H 4.08558914 -1.09389702 2.87150238
H 3.52828451 -1.48841309 1.46119985
O -1.47995989 -3.84823958 -1.85734993
H -1.92603195 -3.07062388 -2.24042002
H -0.53019395 -3.63938365 -1.82433381
O -0.76958539 1.55104173 2.38870134
H 0.10485969 1.24345387 2.06325980
H -1.07037428 0.82454643 2.96559111
O 0.84843854 -2.32879112 3.15576139
H 1.72508448 -1.95300523 2.97184134
H 0.74523456 -3.06883398 2.51786497
